[General]
seed-set = ${0}
ned-path = /home/geo/inet4/src/inet
sim-time-limit = 24h
simtime-resolution = 1s

[Config BusTest]
network = TestDispatcher
**.packetSize = 1024B
**.pingInterval = 5s
**.pongInterval = 10s
